\ whoa 

anew sum.spot
decimal
273 8 -  ( 18 - ) constant sumc

: zum
sumc 0 do
 + $ 7F and  
loop
cr ." raw sum = " dup . ." real sum is " negate $ 7f and . cr
;

hex


\ F0
\ 43
\ 00
\ 7E
\ 02
\ 0A
 4C 4D  \  L  M
 20 20 4D 43  \ .  .  M  C
 52 59 4D     \ R  Y  M 

  00  \ 00
\ 10
 07 2A 00 00
 00 55 01 2A
 02 00 02 55
\ 22
 03 2A 04 00
 04 55 05 2A
 06 00 06 55
\ 34
 07 2A 08 00
 08 55 09 2A
 0A 00 0A 55
\ 46
 0B 2A 0C 00
 0C 55 0D 2A
 0E 00 0E 55
\ 58
 0F 2A 10 00
 10 55 11 2A
 12 00 12 55
\ 70
 13 2A 14 00
 14 55 15 2A
 16 00 16 55
\ 82
 12 26 18 00
 15 38 19 2A
 1A 00 1A 55
\ 94
 1B 2A 1C 34
 1C 55 1D 2A
 1E 17 1E 20
\ 106
 1F 5D 20 2E
 21 0B 21 49
 22 26 22 77
\ 118
 23 33 24 3D
 25 1C 25 2A
 26 17 26 20
\ 130
 27 5D 28 2E
 29 0B 29 49
 2A 26 2A 77
\ 142
 2B 33 2C 3D
 2D 1C 2D 2A
 2E 17 2E 20
\ 154
 2F 5D 30 2D
 31 0B 31 49
 32 26 32 77
\ 166
 33 33 34 3D
 35 1C 35 2A
 36 17 36 20
\ 178
 37 5C 38 2E
 39 0B 39 49
 3A 26 3A 77
\ 190
 3B 33 3C 3D
 3D 1D 3D 2A
 3E 00 3E 55
\ 202
 3F 2A 40 00
 40 55 41 2A
 42 00 42 55
\ 214
 43 2A 44 00
 44 55 45 2A
 46 00 46 55
\ 226
 47 2A 48 00
 48 55 49 2A
 4A 00 4A 55
\ 238
 4B 2A 4C 00
 4C 55 4D 2A
 4E 00 4E 55
\ 250
 4F 2A 50 00
 50 55 51 2A
 52 00 52 55
\ 262
 53 2A 54 00
\ 26      \ check sum =$7f -  byte sum from 10 to 272
\ F7

zum
\ part II

hex

\ F0 43 00 7E 02 0A
 4C 4D 20 20 4D 43
 52 59 4D 01 00 00 00 1E 00 7B 01 59 02 36 03 13
 03 70 04 4D 00 00 05 2A 06 07 06 64 07 41 08 1E
 08 7B 09 59 0A 36 0B 13 0B 70 0C 4D 0C 55 0D 2A
 0E 07 0E 64 0F 41 10 1E 10 7B 11 59 12 36 13 13
 13 70 14 4D 00 00 15 2A 16 07 16 64 17 41 18 1E
 18 7B 19 59 1A 36 1B 13 1B 70 1C 4D 00 00 1D 2A
 1E 07 1E 64 1F 41 20 1E 20 7B 21 59 22 36 23 13
 23 70 24 4D 00 00 25 2A 26 33 27 2E 27 63 28 38
 28 6D 29 00 29 67 2A 72 2B 1C 2C 21 2C 2F 2D 2A
 2E 07 2E 64 2F 41 30 1E 30 7B 31 59 32 36 33 13
 33 70 34 4D 00 00 35 2A 36 07 36 64 37 41 38 1E
 38 7B 39 59 3A 36 3B 13 3B 70 3C 4D 00 00 3D 2A
 3E 07 3E 64 3F 41 40 1E 40 7B 41 59 42 36 43 13
 43 70 44 4D 00 00 45 2A 46 07 46 64 47 41 48 1E
 48 7B 49 59 4A 36 4B 13 4B 70 4C 4D 00 00 4D 2A
 4E 07 4E 64 4F 41 50 1E 50 7B 51 59 52 36 53 13
 53 70 54 00
\ 2A
\ F7                              
zum


decimal                      

